# ===========================================================================
#
#                            PUBLIC DOMAIN NOTICE
#               National Center for Biotechnology Information
#
#  This software/database is a "United States Government Work" under the
#  terms of the United States Copyright Act.  It was written as part of
#  the author's official duties as a United States Government employee and
#  thus cannot be copyrighted.  This software/database is freely available
#  to the public for use. The National Library of Medicine and the U.S.
#  Government have not placed any restriction on its use or reproduction.
#
#  Although all reasonable efforts have been taken to ensure the accuracy
#  and reliability of the software and data, the NLM and the U.S.
#  Government do not and cannot warrant the performance or results that
#  may be obtained by using this software or data. The NLM and the U.S.
#  Government disclaim all warranties, express or implied, including
#  warranties of performance, merchantability or fitness for any particular
#  purpose.
#
#  Please cite the author in any work or product based on this material.
#
# ===========================================================================


default: std

TOP ?= $(abspath ../..)
MODPATH =

include $(TOP)/build/Makefile.config

INTLIBS = \

EXTLIBS =   \
	ngs-c++ \
	ngs-sdk

TARGETS =      \
	$(INTLIBS) \
	$(EXTLIBS)

all std: $(TARGETS)

clean:
	@ rm -rf $(OBJDIR)/*
	@ rm -f $(addprefix $(ILIBDIR)/$(LPFX),$(addsuffix *,$(INTLIBS))) \
			$(addprefix $(LIBDIR)/$(LPFX),$(addsuffix *,$(EXTLIBS)))

#-----------------------------------------------------------------------
# C++ client library that provides API to any engine
ngs-c++: $(LIBDIR) $(LIBDIR)/$(LPFX)ngs-c++-static.$(LIBX)

ifeq (,$(MAKE_MANIFEST))
MAKE_MANIFEST = ( cd $@; $(ARX) $^; $(ARLS) $^ | sed -e '/__\.SYMDEF/d' -e 's/^\(..*\)$$/$(subst /,\/,$@)\/\1/' > $@/manifest )
endif

$(OBJDIR)ngs-bind-c++: $(ILIBDIR)/$(LPFX)ngs-bind-c++.$(LIBX)
	rm -rf $@
	mkdir -p $@
	$(MAKE_MANIFEST)

$(OBJDIR)ngs-disp: $(ILIBDIR)/$(LPFX)ngs-disp.$(LIBX)
	rm -rf $@
	mkdir -p $@
	$(MAKE_MANIFEST)

$(LIBDIR)/$(LPFX)ngs-c++.$(VERSION_LIBX): $(OBJDIR)ngs-bind-c++ $(OBJDIR)ngs-disp
	( $(AR) $@ `cat $(addsuffix /manifest,$^)` )

$(LIBDIR)/$(LPFX)ngs-c++.$(MAJVERS_LIBX): $(LIBDIR)/$(LPFX)ngs-c++.$(VERSION_LIBX)
	rm -f $@
	ln -s $(notdir $^) $@

$(LIBDIR)/$(LPFX)ngs-c++.$(LIBX): $(LIBDIR)/$(LPFX)ngs-c++.$(MAJVERS_LIBX)
	rm -f $@
	ln -s $(notdir $^) $@

$(LIBDIR)/$(LPFX)ngs-c++-static.$(LIBX): $(LIBDIR)/$(LPFX)ngs-c++.$(LIBX)
	rm -f $@
	ln -s $(notdir $^) $@

#-----------------------------------------------------------------------
# Java and Python client library that provides language bindings to any engine
# requires ngs-java.jar for Java
ngs-sdk: $(LIBDIR) $(LIBDIR)/$(LPFX)ngs-sdk.$(SHLX)

$(OBJDIR)ngs-bind-java: $(ILIBDIR)/$(LPFX)ngs-bind-java.$(LIBX)
	rm -rf $@
	mkdir -p $@
	$(MAKE_MANIFEST)

$(OBJDIR)ngs-bind-python: $(ILIBDIR)/$(LPFX)ngs-bind-python.$(LIBX)
	rm -rf $@
	mkdir -p $@
	$(MAKE_MANIFEST)

# sub-libraries to link against
SDK_LIB =        \
	-L$(ILIBDIR) \
	-lngs-disp

SDK_XLIBS =                            \
	$(OBJDIR)ngs-bind-java             \
	$(OBJDIR)ngs-bind-python

SDK_DEPS =                             \
	$(SDK_XLIBS)                       \
	$(ILIBDIR)/$(LPFX)ngs-disp.$(LIBX)

$(LIBDIR)/$(LPFX)ngs-sdk.$(VERSION_SHLX): $(SDK_DEPS)
	$(LP) $(DBG) $(OPT) -shared -o $@ $(SONAME) `cat $(addsuffix /manifest,$(SDK_XLIBS))` $(SDK_LIB)

$(LIBDIR)/$(LPFX)ngs-sdk.$(MAJVERS_SHLX): $(LIBDIR)/$(LPFX)ngs-sdk.$(VERSION_SHLX)
	rm -f $@
	ln -s $(notdir $^) $@

$(LIBDIR)/$(LPFX)ngs-sdk.$(SHLX): $(LIBDIR)/$(LPFX)ngs-sdk.$(MAJVERS_SHLX)
	rm -f $@
	ln -s $(notdir $^) $@

# dependent upon internal libraries
INTERNAL_LIBS =                             \
	$(ILIBDIR)/$(LPFX)ngs-disp.$(LIBX)      \
	$(ILIBDIR)/$(LPFX)ngs-bind-c++.$(LIBX)  \
	$(ILIBDIR)/$(LPFX)ngs-bind-java.$(LIBX) \
	$(ILIBDIR)/$(LPFX)ngs-bind-python.$(LIBX)

$(INTERNAL_LIBS):
	@ echo Missing $@. Please run `make`
	@ false
