# ===========================================================================
#
#                            PUBLIC DOMAIN NOTICE
#               National Center for Biotechnology Information
#
#  This software/database is a "United States Government Work" under the
#  terms of the United States Copyright Act.  It was written as part of
#  the author's official duties as a United States Government employee and
#  thus cannot be copyrighted.  This software/database is freely available
#  to the public for use. The National Library of Medicine and the U.S.
#  Government have not placed any restriction on its use or reproduction.
#
#  Although all reasonable efforts have been taken to ensure the accuracy
#  and reliability of the software and data, the NLM and the U.S.
#  Government do not and cannot warrant the performance or results that
#  may be obtained by using this software or data. The NLM and the U.S.
#  Government disclaim all warranties, express or implied, including
#  warranties of performance, merchantability or fitness for any particular
#  purpose.
#
#  Please cite the author in any work or product based on this material.
#
# ===========================================================================


default: std

TOP ?= $(CURDIR)
MODPATH =

include $(TOP)/Makefile.config

INTLIBS = \

EXTLIBS =   \
	ngs-bam \
	ngs-bam-c++

TARGETS =      \
	$(INTLIBS) \
	$(EXTLIBS)

all std: $(TARGETS)

clean:
	@ rm -rf $(OBJDIR)
	@ rm -f $(addprefix $(ILIBDIR)/$(LPFX),$(addsuffix *,$(INTLIBS))) \
			$(addprefix $(LIBDIR)/$(LPFX),$(addsuffix *,$(EXTLIBS)))

.PHONY: default all std $(TARGETS)

ngs-bam: $(LIBDIR) $(OBJDIR) $(LIBDIR)/$(LPFX)ngs-bam.$(SHLX)

ngs-bam-c++:  $(LIBDIR)           $(LIBDIR)/$(LPFX)ngs-bam-c++-static.$(LIBX)

$(LIBDIR)/$(LPFX)ngs-bam-c++-static.$(LIBX): $(LIBDIR)/$(LPFX)ngs-bam-c++.$(LIBX)
	rm -f $@
	ln -s $(notdir $^) $@

runtests: ngs-bam ngs-bam-c++

ifdef NGS_INCDIR
       INCDIRS += -I$(NGS_INCDIR)
endif

#-------------------------------------------------------------------------------
# ngs-bam
#
NGS_BAM_SRC = \
	bam		  \
	ngs-bam

NGS_BAM_OBJ = \
	$(addprefix $(OBJDIR)/,$(addsuffix .$(LOBX),$(NGS_BAM_SRC)))

NGS_BAM_DEPS = $(NGS_BAM_OBJ)

NGS_BAM_LIB =

ifdef NGS_LIBDIR
	NGS_BAM_LIB += -L$(NGS_LIBDIR)
	NGS_BAM_DEPS += $(NGS_LIBDIR)/$(LPFX)ngs-adapt-c++.$(LIBX)
endif

NGS_BAM_LIB +=      \
	-lngs-adapt-c++ \
	-lz

$(LIBDIR)/$(LPFX)ngs-bam.$(VERSION_SHLX): $(NGS_BAM_DEPS)
	$(LP) $(DBG) $(OPT) -shared -o $@ $(SONAME) $(NGS_BAM_OBJ) $(NGS_BAM_LIB)

$(LIBDIR)/$(LPFX)ngs-bam.$(MAJVERS_SHLX): $(LIBDIR)/$(LPFX)ngs-bam.$(VERSION_SHLX)
	@ rm -f $@
	ln -s $(notdir $^) $@

$(LIBDIR)/$(LPFX)ngs-bam.$(SHLX): $(LIBDIR)/$(LPFX)ngs-bam.$(MAJVERS_SHLX)
	@ rm -f $@
	ln -s $(notdir $^) $@

$(LIBDIR)/$(LPFX)ngs-bam-c++.$(VERSION_LIBX): $(NGS_BAM_OBJ)
	$(AR) $@ $^

$(LIBDIR)/$(LPFX)ngs-bam-c++.$(MAJVERS_LIBX): $(LIBDIR)/$(LPFX)ngs-bam-c++.$(VERSION_LIBX)
	@ rm -f $@
	ln -s $(notdir $^) $@

$(LIBDIR)/$(LPFX)ngs-bam-c++.$(LIBX): $(LIBDIR)/$(LPFX)ngs-bam-c++.$(MAJVERS_LIBX)
	@ rm -f $@
	ln -s $(notdir $^) $@

REQUIRED_LIBS =                                \
	$(NGS_LIBDIR)/$(LPFX)ngs-adapt-c++.$(LIBX)

$(REQUIRED_LIBS):
	@ echo missing $@
	@ false
